6x3t_reference_propofol.pdb
 OpenBabel03262510093D

 13 13  0  0  0  0  0  0  0  0999 V2000
  110.2790  138.1350  141.1640 O   0  0  0  0  0  0  0  0  0  0  0  0
  110.1670  136.8570  141.7190 C   0  0  0  0  0  0  0  0  0  0  0  0
  110.9310  135.8170  141.2220 C   0  0  0  0  0  0  0  0  0  0  0  0
  109.2930  136.6360  142.7670 C   0  0  0  0  0  0  0  0  0  0  0  0
  110.8130  134.5520  141.7760 C   0  0  0  0  0  0  0  0  0  0  0  0
  111.8900  136.0750  140.0620 C   0  0  0  0  0  0  0  0  0  0  0  0
  109.9360  134.3310  142.8250 C   0  0  0  0  0  0  0  0  0  0  0  0
  109.1760  135.3750  143.3220 C   0  0  0  0  0  0  0  0  0  0  0  0
  108.4620  137.7930  143.3070 C   0  0  0  0  0  0  0  0  0  0  0  0
  113.2970  136.3890  140.5630 C   0  0  0  0  0  0  0  0  0  0  0  0
  111.9060  134.9060  139.0820 C   0  0  0  0  0  0  0  0  0  0  0  0
  107.0160  137.7070  142.8320 C   0  0  0  0  0  0  0  0  0  0  0  0
  108.5620  137.8670  144.8250 C   0  0  0  0  0  0  0  0  0  0  0  0
  1  2  1  0  0  0  0
  2  3  2  0  0  0  0
  2  4  1  0  0  0  0
  3  5  1  0  0  0  0
  3  6  1  0  0  0  0
  4  8  2  0  0  0  0
  4  9  1  0  0  0  0
  5  7  2  0  0  0  0
  6 10  1  0  0  0  0
  6 11  1  0  0  0  0
  7  8  1  0  0  0  0
  9 12  1  0  0  0  0
  9 13  1  0  0  0  0
M  END
$$$$
